<routes>

    <vType id="vtype0" accel="2.6" decel="4.5" sigma="0.5" length="4" lcStrategi="0" lcCooperative="0" lcKeepRight="0" minGap="15" maxSpeed="27.78" departLane="0" departSpeed="max"/>
    <vType id="vtype1" accel="2.6" decel="4.5" sigma="0.5" length="4" lcStrategi="0" lcCooperative="0" lcKeepRight="0" minGap="15" maxSpeed="27.78" departLane="1" departSpeed="max" color="1,0,0"/>

    <flow id="flow0" type="vtype0" number="10" probability="0.5" from="106130759" to="345616204#1.655"/>
    <flow id="flow1" type="vtype0" number="0" probability="0.5" from="75259388-AddedOffRampEdge" to="gneE12"/>

    <flow id="flow3" type="vtype1" number="10" probability="0.5" depart="110" from="319144060" to="491989399#1-AddedOnRampEdge.925"/>
    <flow id="flow4" type="vtype1" number="10" probability="0.5" depart="110" from="48516117" to="621521116#0"/>
</routes>
