<?xml version="1.0" encoding="UTF-8"?>

<!-- generated on 2023-07-06 15:38:39 by Eclipse SUMO netedit Version 1.18.0
<configuration xmlns:xsi="http://www.w3.org/2001/XMLSchema-instance" xsi:noNamespaceSchemaLocation="http://sumo.dlr.de/xsd/neteditConfiguration.xsd">

    <input>
        <sumo-net-file value="highway.net.xml"/>
    </input>

    <output>
        <output-file value="highway.net.xml"/>
    </output>

    <processing>
        <geometry.min-radius.fix.railways value="false"/>
        <geometry.max-grade.fix value="false"/>
        <offset.disable-normalization value="true"/>
        <lefthand value="0"/>
    </processing>

    <junctions>
        <no-internal-links value="true"/>
        <no-turnarounds value="true"/>
        <junctions.corner-detail value="5"/>
        <junctions.limit-turn-speed value="5.50"/>
        <rectangular-lane-cut value="0"/>
    </junctions>

    <pedestrian>
        <walkingareas value="0"/>
    </pedestrian>

</configuration>
-->

<net version="1.16" junctionCornerDetail="5" limitTurnSpeed="5.50" xmlns:xsi="http://www.w3.org/2001/XMLSchema-instance" xsi:noNamespaceSchemaLocation="http://sumo.dlr.de/xsd/net_file.xsd">

    <location netOffset="0.00,0.00" convBoundary="0.00,0.00,2000.00,0.00" origBoundary="-10000000000.000000,-10000000000.000000,10000000000.000000,10000000000.000000" projParameter="+proj=tmerc +lat_0=48.78407 +lon_0=11.47258 +ellps=WGS84 +datum=WGS84 +units=m +no_defs"/>

    <edge id="LE" from="LS" to="LE" priority="-1">
        <lane id="LE_0" index="0" speed="19.44" length="500.00" width="4.00" shape="500.00,10.00 0.00,10.00"/>
        <lane id="LE_1" index="1" speed="19.44" length="500.00" width="4.00" shape="500.00,6.00 0.00,6.00"/>
        <lane id="LE_2" index="2" speed="19.44" length="500.00" width="4.00" shape="500.00,2.00 0.00,2.00"/>
    </edge>
    <edge id="LS" from="LE" to="LS" priority="-1">
        <lane id="LS_0" index="0" speed="19.44" length="500.00" width="4.00" shape="0.00,-10.00 500.00,-10.00"/>
        <lane id="LS_1" index="1" speed="19.44" length="500.00" width="4.00" shape="0.00,-6.00 500.00,-6.00"/>
        <lane id="LS_2" index="2" speed="19.44" length="500.00" width="4.00" shape="0.00,-2.00 500.00,-2.00"/>
    </edge>
    <edge id="LSRE" from="LS" to="RS" priority="-1">
        <lane id="LSRE_0" index="0" speed="19.44" length="1000.00" width="4.00" shape="500.00,-10.00 1500.00,-10.00"/>
        <lane id="LSRE_1" index="1" speed="19.44" length="1000.00" width="4.00" shape="500.00,-6.00 1500.00,-6.00"/>
        <lane id="LSRE_2" index="2" speed="19.44" length="1000.00" width="4.00" shape="500.00,-2.00 1500.00,-2.00"/>
    </edge>
    <edge id="RE" from="RS" to="RE" priority="-1">
        <lane id="RE_0" index="0" speed="19.44" length="500.00" width="4.00" shape="1500.00,-10.00 2000.00,-10.00"/>
        <lane id="RE_1" index="1" speed="19.44" length="500.00" width="4.00" shape="1500.00,-6.00 2000.00,-6.00"/>
        <lane id="RE_2" index="2" speed="19.44" length="500.00" width="4.00" shape="1500.00,-2.00 2000.00,-2.00"/>
    </edge>
    <edge id="RS" from="RE" to="RS" priority="-1">
        <lane id="RS_0" index="0" speed="19.44" length="500.00" width="4.00" shape="2000.00,10.00 1500.00,10.00"/>
        <lane id="RS_1" index="1" speed="19.44" length="500.00" width="4.00" shape="2000.00,6.00 1500.00,6.00"/>
        <lane id="RS_2" index="2" speed="19.44" length="500.00" width="4.00" shape="2000.00,2.00 1500.00,2.00"/>
    </edge>
    <edge id="RSLE" from="RS" to="LS" priority="-1">
        <lane id="RSLE_0" index="0" speed="19.44" length="1000.00" width="4.00" shape="1500.00,10.00 500.00,10.00"/>
        <lane id="RSLE_1" index="1" speed="19.44" length="1000.00" width="4.00" shape="1500.00,6.00 500.00,6.00"/>
        <lane id="RSLE_2" index="2" speed="19.44" length="1000.00" width="4.00" shape="1500.00,2.00 500.00,2.00"/>
    </edge>

    <junction id="LE" type="dead_end" x="0.00" y="0.00" incLanes="LE_0 LE_1 LE_2" intLanes="" shape="0.00,0.00 0.00,12.00 0.00,0.00"/>
    <junction id="LS" type="priority" x="500.00" y="0.00" incLanes="RSLE_0 RSLE_1 RSLE_2 LS_0 LS_1 LS_2" intLanes="" shape="500.00,12.00 500.00,-12.00 500.00,12.00">
        <request index="0" response="000000" foes="000000"/>
        <request index="1" response="000000" foes="000000"/>
        <request index="2" response="000000" foes="000000"/>
        <request index="3" response="000000" foes="000000"/>
        <request index="4" response="000000" foes="000000"/>
        <request index="5" response="000000" foes="000000"/>
    </junction>
    <junction id="RE" type="dead_end" x="2000.00" y="0.00" incLanes="RE_0 RE_1 RE_2" intLanes="" shape="2000.00,0.00 2000.00,-12.00 2000.00,0.00"/>
    <junction id="RS" type="priority" x="1500.00" y="0.00" incLanes="RS_0 RS_1 RS_2 LSRE_0 LSRE_1 LSRE_2" intLanes="" shape="1500.00,12.00 1500.00,-12.00 1500.00,12.00">
        <request index="0" response="000000" foes="000000"/>
        <request index="1" response="000000" foes="000000"/>
        <request index="2" response="000000" foes="000000"/>
        <request index="3" response="000000" foes="000000"/>
        <request index="4" response="000000" foes="000000"/>
        <request index="5" response="000000" foes="000000"/>
    </junction>

    <connection from="LS" to="LSRE" fromLane="0" toLane="0" dir="s" state="M"/>
    <connection from="LS" to="LSRE" fromLane="1" toLane="1" dir="s" state="M"/>
    <connection from="LS" to="LSRE" fromLane="2" toLane="2" dir="s" state="M"/>
    <connection from="LSRE" to="RE" fromLane="0" toLane="0" dir="s" state="M"/>
    <connection from="LSRE" to="RE" fromLane="1" toLane="1" dir="s" state="M"/>
    <connection from="LSRE" to="RE" fromLane="2" toLane="2" dir="s" state="M"/>
    <connection from="RS" to="RSLE" fromLane="0" toLane="0" dir="s" state="M"/>
    <connection from="RS" to="RSLE" fromLane="1" toLane="1" dir="s" state="M"/>
    <connection from="RS" to="RSLE" fromLane="2" toLane="2" dir="s" state="M"/>
    <connection from="RSLE" to="LE" fromLane="0" toLane="0" dir="s" state="M"/>
    <connection from="RSLE" to="LE" fromLane="1" toLane="1" dir="s" state="M"/>
    <connection from="RSLE" to="LE" fromLane="2" toLane="2" dir="s" state="M"/>

</net>
