<?xml version="1.0" encoding="UTF-8"?>

<!-- generated on 2023-07-17 12:17:43 by Eclipse SUMO netedit Version 1.10.0
<configuration xmlns:xsi="http://www.w3.org/2001/XMLSchema-instance" xsi:noNamespaceSchemaLocation="http://sumo.dlr.de/xsd/netconvertConfiguration.xsd">

    <input>
        <sumo-net-file value="M50network.net.xml"/>
    </input>

    <output>
        <output-file value="M50network.net.xml"/>
        <output.street-names value="true"/>
    </output>

    <processing>
        <geometry.min-radius.fix.railways value="false"/>
        <geometry.max-grade.fix value="false"/>
        <offset.disable-normalization value="true"/>
        <lefthand value="true"/>
    </processing>

    <junctions>
        <no-turnarounds value="true"/>
        <junctions.corner-detail value="5"/>
        <junctions.limit-turn-speed value="5.5"/>
        <rectangular-lane-cut value="false"/>
    </junctions>

    <pedestrian>
        <walkingareas value="false"/>
    </pedestrian>

    <report>
        <aggregate-warnings value="5"/>
    </report>

</configuration>
-->

<net version="1.9" junctionCornerDetail="5" lefthand="true" limitTurnSpeed="5.50">
    <location netOffset="-671732.77,-5908594.20" convBoundary="679.56,966.00,4441.09,9242.02" origBoundary="-6.528760,53.297046,-6.306411,53.380037" projParameter="+proj=utm +zone=29 +ellps=WGS84 +datum=WGS84 +units=m +no_defs"/>

    <type id="highway.bridleway" priority="1" numLanes="1" speed="2.78" allow="pedestrian" oneway="1" width="2.00"/>
    <type id="highway.bus_guideway" priority="1" numLanes="1" speed="27.78" allow="bus" oneway="1"/>
    <type id="highway.cycleway" priority="1" numLanes="1" speed="8.33" allow="bicycle" oneway="1" width="1.00"/>
    <type id="highway.footway" priority="1" numLanes="1" speed="2.78" allow="pedestrian" oneway="1" width="2.00"/>
    <type id="highway.ford" priority="1" numLanes="1" speed="2.78" allow="army" oneway="1"/>
    <type id="highway.living_street" priority="2" numLanes="1" speed="2.78" disallow="tram rail_urban rail rail_electric ship" oneway="1"/>
    <type id="highway.motorway" priority="14" numLanes="2" speed="39.44" allow="private emergency authority army vip passenger hov taxi bus coach delivery truck trailer motorcycle evehicle custom1 custom2" oneway="1"/>
    <type id="highway.motorway_link" priority="9" numLanes="1" speed="22.22" allow="private emergency authority army vip passenger hov taxi bus coach delivery truck trailer motorcycle evehicle custom1 custom2" oneway="1"/>
    <type id="highway.path" priority="1" numLanes="1" speed="2.78" allow="pedestrian bicycle" oneway="1" width="2.00"/>
    <type id="highway.pedestrian" priority="1" numLanes="1" speed="2.78" allow="pedestrian" oneway="1" width="2.00"/>
    <type id="highway.primary" priority="12" numLanes="2" speed="27.78" disallow="tram rail_urban rail rail_electric ship" oneway="1"/>
    <type id="highway.primary_link" priority="7" numLanes="1" speed="22.22" disallow="tram rail_urban rail rail_electric ship" oneway="1"/>
    <type id="highway.raceway" priority="15" numLanes="2" speed="83.33" allow="vip" oneway="1"/>
    <type id="highway.residential" priority="3" numLanes="1" speed="13.89" disallow="tram rail_urban rail rail_electric ship" oneway="1"/>
    <type id="highway.secondary" priority="11" numLanes="2" speed="27.78" disallow="tram rail_urban rail rail_electric ship" oneway="1"/>
    <type id="highway.secondary_link" priority="6" numLanes="1" speed="22.22" disallow="tram rail_urban rail rail_electric ship" oneway="1"/>
    <type id="highway.service" priority="1" numLanes="1" speed="5.56" allow="pedestrian delivery bicycle" oneway="1"/>
    <type id="highway.stairs" priority="1" numLanes="1" speed="1.39" allow="pedestrian" oneway="1" width="2.00"/>
    <type id="highway.step" priority="1" numLanes="1" speed="1.39" allow="pedestrian" oneway="1" width="2.00"/>
    <type id="highway.steps" priority="1" numLanes="1" speed="1.39" allow="pedestrian" oneway="1" width="2.00"/>
    <type id="highway.tertiary" priority="10" numLanes="1" speed="22.22" disallow="tram rail_urban rail rail_electric ship" oneway="1"/>
    <type id="highway.tertiary_link" priority="5" numLanes="1" speed="22.22" disallow="tram rail_urban rail rail_electric ship" oneway="1"/>
    <type id="highway.track" priority="1" numLanes="1" speed="5.56" disallow="tram rail_urban rail rail_electric ship" oneway="1"/>
    <type id="highway.trunk" priority="13" numLanes="2" speed="27.78" disallow="pedestrian bicycle tram rail_urban rail rail_electric ship" oneway="1"/>
    <type id="highway.trunk_link" priority="8" numLanes="1" speed="22.22" disallow="pedestrian bicycle tram rail_urban rail rail_electric ship" oneway="1"/>
    <type id="highway.unclassified" priority="4" numLanes="1" speed="13.89" disallow="tram rail_urban rail rail_electric ship" oneway="1"/>
    <type id="highway.unsurfaced" priority="1" numLanes="1" speed="8.33" disallow="tram rail_urban rail rail_electric ship" oneway="1"/>
    <type id="railway.light_rail" priority="19" numLanes="1" speed="27.78" allow="rail_urban" oneway="1"/>
    <type id="railway.preserved" priority="16" numLanes="1" speed="27.78" allow="rail" oneway="1"/>
    <type id="railway.rail" priority="20" numLanes="1" speed="83.33" allow="rail rail_electric" oneway="1"/>
    <type id="railway.subway" priority="18" numLanes="1" speed="27.78" allow="rail_urban" oneway="1"/>
    <type id="railway.tram" priority="17" numLanes="1" speed="13.89" allow="tram" oneway="1"/>

    <edge id=":106130759-AddedOffRampNode_0" function="internal">
        <lane id=":106130759-AddedOffRampNode_0_0" index="0" allow="private emergency authority army vip passenger hov taxi bus coach delivery truck trailer motorcycle evehicle custom1 custom2" speed="27.78" length="8.32" shape="2415.42,6944.62 2415.56,6942.13 2416.43,6940.46 2417.31,6938.79 2417.46,6936.29"/>
        <lane id=":106130759-AddedOffRampNode_0_1" index="1" allow="private emergency authority army vip passenger hov taxi bus coach delivery truck trailer motorcycle evehicle custom1 custom2" speed="27.78" length="8.32" shape="2412.26,6945.09 2412.39,6942.59 2413.26,6940.91 2414.14,6939.24 2414.29,6936.73"/>
        <lane id=":106130759-AddedOffRampNode_0_2" index="2" allow="private emergency authority army vip passenger hov taxi bus coach delivery truck trailer motorcycle evehicle custom1 custom2" speed="27.78" length="8.32" shape="2412.26,6945.09 2411.12,6937.18"/>
        <lane id=":106130759-AddedOffRampNode_0_3" index="3" allow="private emergency authority army vip passenger hov taxi bus coach delivery truck trailer motorcycle evehicle custom1 custom2" speed="27.78" length="8.32" shape="2409.09,6945.56 2407.96,6937.62"/>
        <lane id=":106130759-AddedOffRampNode_0_4" index="4" allow="private emergency authority army vip passenger hov taxi bus coach delivery truck trailer motorcycle evehicle custom1 custom2" speed="27.78" length="8.32" shape="2405.93,6946.02 2404.79,6938.07"/>
    </edge>
    <edge id=":107635881_0" function="internal">
        <lane id=":107635881_0_0" index="0" allow="private emergency authority army vip passenger hov taxi bus coach delivery truck trailer motorcycle evehicle custom1 custom2" speed="22.23" length="0.29" shape="3364.25,2798.26 3364.48,2797.84"/>
        <lane id=":107635881_0_1" index="1" allow="private emergency authority army vip passenger hov taxi bus coach delivery truck trailer motorcycle evehicle custom1 custom2" speed="22.23" length="0.29" shape="3361.49,2796.64 3361.63,2796.39"/>
        <lane id=":107635881_0_2" index="2" allow="private emergency authority army vip passenger hov taxi bus coach delivery truck trailer motorcycle evehicle custom1 custom2" speed="22.23" length="0.29" shape="3358.73,2795.03 3358.77,2794.94"/>
    </edge>
    <edge id=":107635947_0" function="internal">
        <lane id=":107635947_0_0" index="0" disallow="pedestrian bicycle tram rail_urban rail rail_electric rail_fast ship" speed="19.45" length="0.59" shape="3046.02,2081.58 3045.66,2081.43"/>
        <lane id=":107635947_0_1" index="1" disallow="pedestrian bicycle tram rail_urban rail rail_electric rail_fast ship" speed="19.45" length="0.59" shape="3044.83,2084.55 3044.35,2084.35"/>
        <lane id=":107635947_0_2" index="2" disallow="pedestrian bicycle tram rail_urban rail rail_electric rail_fast ship" speed="19.45" length="0.59" shape="3043.64,2087.53 3043.03,2087.27"/>
        <lane id=":107635947_0_3" index="3" disallow="pedestrian bicycle tram rail_urban rail rail_electric rail_fast ship" speed="19.45" length="0.59" shape="3042.45,2090.50 3041.72,2090.19"/>
    </edge>
    <edge id=":107636108_0" function="internal">
        <lane id=":107636108_0_0" index="0" allow="private emergency authority army vip passenger hov taxi bus coach delivery truck trailer motorcycle evehicle custom1 custom2" speed="18.05" length="0.28" shape="2323.21,6502.05 2323.25,6502.33"/>
    </edge>
    <edge id=":107673225_0" function="internal">
        <lane id=":107673225_0_0" index="0" allow="private emergency authority army vip passenger hov taxi bus coach delivery truck trailer motorcycle evehicle custom1 custom2" speed="16.67" length="18.62" shape="2442.76,6483.84 2427.35,6473.38"/>
    </edge>
    <edge id=":107673225_1" function="internal">
        <lane id=":107673225_1_0" index="0" allow="private emergency authority army vip passenger hov taxi bus coach delivery truck trailer motorcycle evehicle custom1 custom2" speed="16.67" length="18.63" shape="2442.76,6483.84 2438.90,6481.91 2434.31,6479.94 2429.67,6478.07 2425.67,6476.44"/>
    </edge>
    <edge id=":107673230_0" function="internal">
        <lane id=":107673230_0_0" index="0" allow="private emergency authority army vip passenger hov taxi bus coach delivery truck trailer motorcycle evehicle custom1 custom2" speed="12.50" length="0.10" shape="2295.14,6452.03 2295.14,6452.03"/>
    </edge>
    <edge id=":107673236_0" function="internal">
        <lane id=":107673236_0_0" index="0" allow="private emergency authority army vip passenger hov taxi bus coach delivery truck trailer motorcycle evehicle custom1 custom2" speed="22.23" length="24.14" shape="2354.48,6738.21 2355.69,6742.18 2356.50,6747.35 2357.24,6753.90 2358.23,6762.00"/>
    </edge>
    <edge id=":107673236_1" function="internal">
        <lane id=":107673236_1_0" index="0" allow="private emergency authority army vip passenger hov taxi bus coach delivery truck trailer motorcycle evehicle custom1 custom2" speed="27.78" length="22.29" shape="2358.89,6739.34 2361.40,6761.57"/>
        <lane id=":107673236_1_1" index="1" allow="private emergency authority army vip passenger hov taxi bus coach delivery truck trailer motorcycle evehicle custom1 custom2" speed="27.78" length="22.29" shape="2362.07,6738.98 2364.58,6761.13"/>
        <lane id=":107673236_1_2" index="2" allow="private emergency authority army vip passenger hov taxi bus coach delivery truck trailer motorcycle evehicle custom1 custom2" speed="27.78" length="22.29" shape="2365.25,6738.62 2367.75,6760.70"/>
    </edge>
    <edge id=":108343718_0" function="internal">
        <lane id=":108343718_0_0" index="0" allow="private emergency authority army vip passenger hov taxi bus coach delivery truck trailer motorcycle evehicle custom1 custom2" speed="22.22" length="11.32" shape="3457.75,2361.83 3460.43,2363.89 3462.50,2364.96 3464.69,2365.86 3467.76,2367.36"/>
        <lane id=":108343718_0_1" index="1" allow="private emergency authority army vip passenger hov taxi bus coach delivery truck trailer motorcycle evehicle custom1 custom2" speed="22.22" length="11.32" shape="3459.60,2359.20 3462.20,2361.19 3464.20,2362.24 3466.33,2363.10 3469.30,2364.56"/>
    </edge>
    <edge id=":108343826_0" function="internal">
        <lane id=":108343826_0_0" index="0" allow="private emergency authority army vip passenger hov taxi bus coach delivery truck trailer motorcycle evehicle custom1 custom2" speed="15.27" length="0.12" shape="3501.88,2386.84 3501.91,2386.86"/>
        <lane id=":108343826_0_1" index="1" allow="private emergency authority army vip passenger hov taxi bus coach delivery truck trailer motorcycle evehicle custom1 custom2" speed="15.27" length="0.12" shape="3503.54,2384.11 3503.71,2384.22"/>
    </edge>
    <edge id=":108344325_0" function="internal">
        <lane id=":108344325_0_0" index="0" allow="private emergency authority army vip passenger hov taxi bus coach delivery truck trailer motorcycle evehicle custom1 custom2" speed="27.78" length="22.58" shape="3590.55,2335.12 3591.78,2329.12 3593.18,2324.81 3595.21,2320.52 3598.34,2314.61"/>
        <lane id=":108344325_0_1" index="1" allow="private emergency authority army vip passenger hov taxi bus coach delivery truck trailer motorcycle evehicle custom1 custom2" speed="27.78" length="22.58" shape="3587.39,2334.56 3588.64,2328.48 3590.10,2323.95 3592.24,2319.37 3595.51,2313.12"/>
    </edge>
    <edge id=":108344325_2" function="internal">
        <lane id=":108344325_2_0" index="0" allow="private emergency authority army vip passenger hov taxi bus coach delivery truck trailer motorcycle evehicle custom1 custom2" speed="20.84" length="23.54" shape="3583.97,2333.42 3586.82,2327.07 3588.28,2322.50 3589.77,2317.95 3592.68,2311.63"/>
        <lane id=":108344325_2_1" index="1" allow="private emergency authority army vip passenger hov taxi bus coach delivery truck trailer motorcycle evehicle custom1 custom2" speed="20.84" length="23.54" shape="3581.12,2331.96 3583.97,2325.60 3585.44,2321.03 3586.93,2316.47 3589.85,2310.14"/>
        <lane id=":108344325_2_2" index="2" allow="private emergency authority army vip passenger hov taxi bus coach delivery truck trailer motorcycle evehicle custom1 custom2" speed="20.84" length="23.54" shape="3578.27,2330.50 3581.13,2324.13 3582.60,2319.55 3584.09,2314.99 3587.02,2308.65"/>
    </edge>
    <edge id=":11994462-AddedOnRampNode_0" function="internal">
        <lane id=":11994462-AddedOnRampNode_0_0" index="0" allow="private emergency authority army vip passenger hov taxi bus coach delivery truck trailer motorcycle evehicle custom1 custom2" speed="8.33" length="1.62" shape="3550.50,2421.84 3551.77,2420.83"/>
        <lane id=":11994462-AddedOnRampNode_0_1" index="1" allow="private emergency authority army vip passenger hov taxi bus coach delivery truck trailer motorcycle evehicle custom1 custom2" speed="8.33" length="1.62" shape="3552.60,2419.43 3553.88,2418.42"/>
    </edge>
    <edge id=":12120250_0" function="internal">
        <lane id=":12120250_0_0" index="0" disallow="pedestrian bicycle tram rail_urban rail rail_electric rail_fast ship" speed="16.67" length="0.64" shape="3492.42,2362.49 3492.64,2362.67 3492.80,2362.78 3492.97,2362.88 3493.23,2363.01"/>
        <lane id=":12120250_0_1" index="1" disallow="pedestrian bicycle tram rail_urban rail rail_electric rail_fast ship" speed="16.67" length="0.64" shape="3494.42,2359.99 3494.49,2360.05 3494.54,2360.09 3494.60,2360.12 3494.69,2360.16"/>
    </edge>
    <edge id=":12528267_0" function="internal">
        <lane id=":12528267_0_0" index="0" allow="private emergency authority army vip passenger hov taxi bus coach delivery truck trailer motorcycle evehicle custom1 custom2" speed="22.22" length="3.61" shape="1948.14,6451.72 1947.14,6451.68 1946.44,6452.05 1945.74,6452.45 1944.73,6452.48"/>
    </edge>
    <edge id=":12528267_1" function="internal">
        <lane id=":12528267_1_0" index="0" disallow="pedestrian bicycle tram rail_urban rail rail_electric rail_fast ship" speed="22.22" length="2.54" shape="1946.74,6456.30 1944.04,6455.60"/>
        <lane id=":12528267_1_1" index="1" disallow="pedestrian bicycle tram rail_urban rail rail_electric rail_fast ship" speed="22.22" length="2.54" shape="1945.80,6459.36 1943.35,6458.72"/>
        <lane id=":12528267_1_2" index="2" disallow="pedestrian bicycle tram rail_urban rail rail_electric rail_fast ship" speed="22.22" length="2.54" shape="1944.87,6462.42 1942.66,6461.85"/>
    </edge>
    <edge id=":12532024_0" function="internal">
        <lane id=":12532024_0_0" index="0" allow="private emergency authority army vip passenger hov taxi bus coach delivery truck trailer motorcycle evehicle custom1 custom2" speed="22.23" length="2.55" shape="3213.23,2922.09 3211.80,2924.20"/>
    </edge>
    <edge id=":12532024_1" function="internal">
        <lane id=":12532024_1_0" index="0" allow="private emergency authority army vip passenger hov taxi bus coach delivery truck trailer motorcycle evehicle custom1 custom2" speed="27.78" length="2.94" shape="3215.92,2923.83 3214.40,2926.07"/>
        <lane id=":12532024_1_1" index="1" allow="private emergency authority army vip passenger hov taxi bus coach delivery truck trailer motorcycle evehicle custom1 custom2" speed="27.78" length="2.94" shape="3218.61,2925.57 3217.00,2927.93"/>
        <lane id=":12532024_1_2" index="2" allow="private emergency authority army vip passenger hov taxi bus coach delivery truck trailer motorcycle evehicle custom1 custom2" speed="27.78" length="2.94" shape="3221.30,2927.31 3219.60,2929.80"/>
        <lane id=":12532024_1_3" index="3" allow="private emergency authority army vip passenger hov taxi bus coach delivery truck trailer motorcycle evehicle custom1 custom2" speed="27.78" length="2.94" shape="3223.98,2929.04 3222.20,2931.67"/>
    </edge>
    <edge id=":12690179_0" function="internal">
        <lane id=":12690179_0_0" index="0" allow="private emergency authority army vip passenger hov taxi bus coach delivery truck trailer motorcycle evehicle custom1 custom2" speed="27.78" length="8.65" shape="2320.56,6111.56 2319.76,6103.56"/>
        <lane id=":12690179_0_1" index="1" allow="private emergency authority army vip passenger hov taxi bus coach delivery truck trailer motorcycle evehicle custom1 custom2" speed="27.78" length="8.65" shape="2317.38,6111.87 2317.64,6109.36 2318.58,6107.71 2319.52,6106.06 2319.76,6103.56"/>
        <lane id=":12690179_0_2" index="2" allow="private emergency authority army vip passenger hov taxi bus coach delivery truck trailer motorcycle evehicle custom1 custom2" speed="27.78" length="8.65" shape="2314.19,6112.17 2314.45,6109.67 2315.40,6108.03 2316.34,6106.39 2316.58,6103.89"/>
        <lane id=":12690179_0_3" index="3" allow="private emergency authority army vip passenger hov taxi bus coach delivery truck trailer motorcycle evehicle custom1 custom2" speed="27.78" length="8.65" shape="2311.01,6112.48 2311.27,6109.98 2312.21,6108.35 2313.15,6106.71 2313.40,6104.22"/>
        <lane id=":12690179_0_4" index="4" allow="private emergency authority army vip passenger hov taxi bus coach delivery truck trailer motorcycle evehicle custom1 custom2" speed="27.78" length="8.65" shape="2307.82,6112.78 2308.08,6110.30 2309.03,6108.67 2309.97,6107.04 2310.21,6104.55"/>
    </edge>
    <edge id=":15853040_0" function="internal">
        <lane id=":15853040_0_0" index="0" disallow="tram rail_urban rail rail_electric rail_fast ship" speed="16.67" length="8.17" shape="3832.96,2477.93 3835.12,2479.06 3836.77,2479.48 3838.44,2479.88 3840.63,2480.94"/>
        <lane id=":15853040_0_1" index="1" disallow="tram rail_urban rail rail_electric rail_fast ship" speed="16.67" length="8.17" shape="3834.73,2475.26 3836.60,2476.80 3837.65,2478.15 3838.72,2479.47 3840.63,2480.94"/>
        <lane id=":15853040_0_2" index="2" disallow="tram rail_urban rail rail_electric rail_fast ship" speed="16.67" length="8.17" shape="3836.51,2472.60 3838.35,2474.12 3839.38,2475.45 3840.43,2476.76 3842.31,2478.22"/>
        <lane id=":15853040_0_3" index="3" disallow="tram rail_urban rail rail_electric rail_fast ship" speed="16.67" length="8.17" shape="3838.28,2469.93 3840.09,2471.44 3841.11,2472.76 3842.13,2474.05 3843.99,2475.50"/>
    </edge>
    <edge id=":169300201_0" function="internal">
        <lane id=":169300201_0_0" index="0" disallow="pedestrian bicycle tram rail_urban rail rail_electric rail_fast ship" speed="16.67" length="0.25" shape="2462.41,6608.16 2462.71,6608.12"/>
        <lane id=":169300201_0_1" index="1" disallow="pedestrian bicycle tram rail_urban rail rail_electric rail_fast ship" speed="16.67" length="0.25" shape="2461.96,6604.99 2462.17,6604.96"/>
    </edge>
    <edge id=":169300207_0" function="internal">
        <lane id=":169300207_0_0" index="0" allow="private emergency authority army vip passenger hov taxi bus coach delivery truck trailer motorcycle evehicle custom1 custom2" speed="16.67" length="16.31" shape="2394.37,6694.12 2395.39,6688.93 2396.07,6684.90 2396.85,6681.53 2398.19,6678.32"/>
    </edge>
    <edge id=":169300207_1" function="internal">
        <lane id=":169300207_1_0" index="0" allow="private emergency authority army vip passenger hov taxi bus coach delivery truck trailer motorcycle evehicle custom1 custom2" speed="16.67" length="7.20" shape="2391.25,6693.41 2391.67,6691.32 2391.85,6689.87 2391.94,6688.40 2392.09,6686.27"/>
    </edge>
    <edge id=":181454548_0" function="internal">
        <lane id=":181454548_0_0" index="0" allow="private emergency authority army vip passenger hov taxi bus coach delivery truck trailer motorcycle evehicle custom1 custom2" speed="18.05" length="3.01" shape="2356.89,6446.55 2356.57,6443.55"/>
        <lane id=":181454548_0_1" index="1" allow="private emergency authority army vip passenger hov taxi bus coach delivery truck trailer motorcycle evehicle custom1 custom2" speed="18.05" length="3.01" shape="2353.71,6446.88 2353.39,6443.89"/>
    </edge>
    <edge id=":181454548_2" function="internal">
        <lane id=":181454548_2_0" index="0" allow="private emergency authority army vip passenger hov taxi bus coach delivery truck trailer motorcycle evehicle custom1 custom2" speed="27.78" length="2.99" shape="2350.51,6447.21 2350.20,6444.22"/>
        <lane id=":181454548_2_1" index="1" allow="private emergency authority army vip passenger hov taxi bus coach delivery truck trailer motorcycle evehicle custom1 custom2" speed="27.78" length="2.99" shape="2347.32,6447.53 2347.02,6444.55"/>
        <lane id=":181454548_2_2" index="2" allow="private emergency authority army vip passenger hov taxi bus coach delivery truck trailer motorcycle evehicle custom1 custom2" speed="27.78" length="2.99" shape="2344.14,6447.86 2343.84,6444.89"/>
    </edge>
    <edge id=":181454567_0" function="internal">
        <lane id=":181454567_0_0" index="0" allow="private emergency authority army vip passenger hov taxi bus coach delivery truck trailer motorcycle evehicle custom1 custom2" speed="16.67" length="0.27" shape="2302.30,6482.20 2302.52,6482.18"/>
        <lane id=":181454567_0_1" index="1" allow="private emergency authority army vip passenger hov taxi bus coach delivery truck trailer motorcycle evehicle custom1 custom2" speed="16.67" length="0.27" shape="2301.94,6479.03 2302.24,6478.99"/>
    </edge>
    <edge id=":193034705_0" function="internal">
        <lane id=":193034705_0_0" index="0" allow="private emergency authority army vip passenger hov taxi bus coach delivery truck trailer motorcycle evehicle custom1 custom2" speed="15.28" length="0.35" shape="2183.95,6454.54 2183.90,6454.63 2183.87,6454.69 2183.85,6454.76 2183.82,6454.86"/>
    </edge>
    <edge id=":193034707_0" function="internal">
        <lane id=":193034707_0_0" index="0" allow="private emergency authority army vip passenger hov taxi bus coach delivery truck trailer motorcycle evehicle custom1 custom2" speed="15.28" length="0.30" shape="2184.92,6525.35 2184.94,6525.43 2184.96,6525.49 2184.99,6525.54 2185.03,6525.62"/>
    </edge>
    <edge id=":21568042_0" function="internal">
        <lane id=":21568042_0_0" index="0" allow="private emergency authority army vip passenger hov taxi bus coach delivery truck trailer motorcycle evehicle custom1 custom2" speed="16.67" length="11.60" shape="2740.65,6525.67 2737.30,6526.78 2734.81,6527.21 2732.39,6527.36 2729.28,6527.67"/>
    </edge>
    <edge id=":21568042_1" function="internal">
        <lane id=":21568042_1_0" index="0" disallow="pedestrian bicycle tram rail_urban rail rail_electric rail_fast ship" speed="16.67" length="12.01" shape="2741.82,6528.65 2738.45,6529.66 2736.00,6529.90 2733.55,6530.12 2730.14,6531.07"/>
        <lane id=":21568042_1_1" index="1" disallow="pedestrian bicycle tram rail_urban rail rail_electric rail_fast ship" speed="16.67" length="12.01" shape="2743.00,6531.62 2739.61,6532.64 2737.15,6532.88 2734.68,6533.11 2731.26,6534.06"/>
    </edge>
    <edge id=":2187111852_0" function="internal">
        <lane id=":2187111852_0_0" index="0" allow="private emergency authority army vip passenger hov taxi bus coach delivery truck trailer motorcycle evehicle custom1 custom2" speed="22.22" length="2.64" shape="3322.23,2233.24 3324.54,2234.32"/>
        <lane id=":2187111852_0_1" index="1" allow="private emergency authority army vip passenger hov taxi bus coach delivery truck trailer motorcycle evehicle custom1 custom2" speed="22.22" length="2.64" shape="3323.50,2230.30 3325.97,2231.46"/>
    </edge>
    <edge id=":2187111852_2" function="internal">
        <lane id=":2187111852_2_0" index="0" allow="private emergency authority army vip passenger hov taxi bus coach delivery truck trailer motorcycle evehicle custom1 custom2" speed="22.22" length="3.07" shape="3324.77,2227.36 3325.60,2227.65 3326.20,2227.76 3326.79,2227.88 3327.60,2228.22"/>
        <lane id=":2187111852_2_1" index="1" allow="private emergency authority army vip passenger hov taxi bus coach delivery truck trailer motorcycle evehicle custom1 custom2" speed="22.22" length="3.07" shape="3326.03,2224.43 3326.92,2224.73 3327.55,2224.86 3328.18,2225.00 3329.04,2225.36"/>
    </edge>
    <edge id=":247119678_0" function="internal">
        <lane id=":247119678_0_0" index="0" allow="private emergency authority army vip passenger hov taxi bus coach delivery truck trailer motorcycle evehicle custom1 custom2" speed="19.45" length="8.40" shape="3257.82,2201.93 3259.87,2203.38 3260.85,2205.00 3261.82,2206.63 3263.89,2208.06"/>
        <lane id=":247119678_0_1" index="1" allow="private emergency authority army vip passenger hov taxi bus coach delivery truck trailer motorcycle evehicle custom1 custom2" speed="19.45" length="8.40" shape="3257.82,2201.93 3265.16,2205.12"/>
        <lane id=":247119678_0_2" index="2" allow="private emergency authority army vip passenger hov taxi bus coach delivery truck trailer motorcycle evehicle custom1 custom2" speed="19.45" length="8.40" shape="3259.10,2199.00 3266.43,2202.19"/>
        <lane id=":247119678_0_3" index="3" allow="private emergency authority army vip passenger hov taxi bus coach delivery truck trailer motorcycle evehicle custom1 custom2" speed="19.45" length="8.40" shape="3259.10,2199.00 3261.55,2199.53 3263.39,2199.13 3265.24,2198.73 3267.69,2199.25"/>
    </edge>
    <edge id=":247119713_0" function="internal">
        <lane id=":247119713_0_0" index="0" allow="private emergency authority army vip passenger hov taxi bus coach delivery truck trailer motorcycle evehicle custom1 custom2" speed="19.45" length="8.19" shape="3429.48,2483.57 3428.93,2485.91 3428.93,2487.60 3428.90,2489.28 3428.32,2491.61"/>
        <lane id=":247119713_0_1" index="1" allow="private emergency authority army vip passenger hov taxi bus coach delivery truck trailer motorcycle evehicle custom1 custom2" speed="19.45" length="8.19" shape="3432.50,2484.61 3431.49,2486.79 3430.44,2488.12 3429.38,2489.44 3428.32,2491.61"/>
    </edge>
    <edge id=":248100702_0" function="internal">
        <lane id=":248100702_0_0" index="0" allow="private emergency authority army vip passenger hov taxi bus coach delivery truck trailer motorcycle evehicle custom1 custom2" speed="18.05" length="0.80" shape="3525.04,2494.09 3524.97,2493.99 3524.93,2493.92 3524.90,2493.85 3524.86,2493.74"/>
        <lane id=":248100702_0_1" index="1" allow="private emergency authority army vip passenger hov taxi bus coach delivery truck trailer motorcycle evehicle custom1 custom2" speed="18.05" length="0.80" shape="3522.39,2495.89 3522.19,2495.60 3522.07,2495.39 3521.97,2495.16 3521.85,2494.83"/>
    </edge>
    <edge id=":249202646_0" function="internal">
        <lane id=":249202646_0_0" index="0" allow="private emergency authority army vip passenger hov taxi bus coach delivery truck trailer motorcycle evehicle custom1 custom2" speed="12.50" length="0.60" shape="2389.90,6491.67 2389.98,6491.70 2390.04,6491.72 2390.09,6491.75 2390.17,6491.80"/>
        <lane id=":249202646_0_1" index="1" allow="private emergency authority army vip passenger hov taxi bus coach delivery truck trailer motorcycle evehicle custom1 custom2" speed="12.50" length="0.60" shape="2390.95,6488.65 2391.21,6488.74 2391.38,6488.81 2391.54,6488.89 2391.77,6489.03"/>
    </edge>
    <edge id=":254725105_0" function="internal">
        <lane id=":254725105_0_0" index="0" allow="private emergency authority army vip passenger hov taxi bus coach delivery truck trailer motorcycle evehicle custom1 custom2" speed="16.67" length="8.33" shape="3507.69,2571.40 3509.70,2570.02 3511.25,2569.36 3512.92,2568.94 3515.30,2568.25"/>
    </edge>
    <edge id=":254725105_1" function="internal">
        <lane id=":254725105_1_0" index="0" allow="private emergency authority army vip passenger hov taxi bus coach delivery truck trailer motorcycle evehicle custom1 custom2" speed="16.67" length="8.77" shape="3505.72,2568.88 3507.88,2567.48 3509.56,2566.86 3511.31,2566.32 3513.65,2565.19"/>
        <lane id=":254725105_1_1" index="1" allow="private emergency authority army vip passenger hov taxi bus coach delivery truck trailer motorcycle evehicle custom1 custom2" speed="16.67" length="8.77" shape="3503.75,2566.36 3505.89,2564.97 3507.56,2564.34 3509.29,2563.81 3511.61,2562.67"/>
    </edge>
    <edge id=":261187938-AddedOffRampNode_0" function="internal">